PV_Scenarios/PV_combined/scenario_57_combined/PV_combined80per.txt
New PVSystem.PV_1 phases=1 bus1=G2000SO1800_N274227_sec_2.3 kV=0.24 kVA=5.64 irradiance=1 Pmpp=4.7 %cutin=0.1 %cutout=0.1
New PVSystem.PV_2 phases=1 bus1=G2000WI4400_N283710_sec_5.2 kV=0.24 kVA=6.36 irradiance=1 Pmpp=5.3 %cutin=0.1 %cutout=0.1
New PVSystem.PV_3 phases=1 bus1=G2000WO8800_N283892_sec_1.3 kV=0.24 kVA=5.16 irradiance=1 Pmpp=4.3 %cutin=0.1 %cutout=0.1
New PVSystem.PV_4 phases=1 bus1=G2000XH0500_N283607_sec_1.3 kV=0.24 kVA=3.12 irradiance=1 Pmpp=2.6 %cutin=0.1 %cutout=0.1
New PVSystem.PV_5 phases=1 bus1=G2001RH0400_N274403_sec_2.2 kV=0.24 kVA=6.0469 irradiance=1 Pmpp=5.039 %cutin=0.1 %cutout=0.1
New PVSystem.PV_6 phases=1 bus1=G2001RH0400_N274403_sec_5.2 kV=0.24 kVA=6.0081 irradiance=1 Pmpp=5.0068 %cutin=0.1 %cutout=0.1
New PVSystem.PV_7 phases=1 bus1=G2001RH0400_N274403_sec_7.2 kV=0.24 kVA=5.64 irradiance=1 Pmpp=4.7 %cutin=0.1 %cutout=0.1
New PVSystem.PV_8 phases=1 bus1=G2001SL6300_N274540_sec_4.2 kV=0.24 kVA=13.5726 irradiance=1 Pmpp=11.3105 %cutin=0.1 %cutout=0.1
New PVSystem.PV_9 phases=1 bus1=G2001TC6700_N274291_sec_2.3 kV=0.24 kVA=2.76 irradiance=1 Pmpp=2.3 %cutin=0.1 %cutout=0.1
New PVSystem.PV_10 phases=1 bus1=G2001TH0100_N274396_sec_2.2 kV=0.24 kVA=10.56 irradiance=1 Pmpp=8.8 %cutin=0.1 %cutout=0.1
New PVSystem.PV_11 phases=1 bus1=G2001UD4700_N284020_sec_4.3 kV=0.24 kVA=5.4 irradiance=1 Pmpp=4.5 %cutin=0.1 %cutout=0.1
New PVSystem.PV_12 phases=1 bus1=G2001VC8200_N283967_sec_1.3 kV=0.24 kVA=6.96 irradiance=1 Pmpp=5.8 %cutin=0.1 %cutout=0.1
New PVSystem.PV_13 phases=1 bus1=G2001VG6500_N284122_sec_2.3 kV=0.24 kVA=5.16 irradiance=1 Pmpp=4.3 %cutin=0.1 %cutout=0.1
New PVSystem.PV_14 phases=1 bus1=G2001WB8800_N283948_sec_7.3 kV=0.24 kVA=6.6 irradiance=1 Pmpp=5.5 %cutin=0.1 %cutout=0.1
New PVSystem.PV_15 phases=1 bus1=G2001XC7500_N283961_sec_1.3 kV=0.24 kVA=4.44 irradiance=1 Pmpp=3.7 %cutin=0.1 %cutout=0.1
New PVSystem.PV_16 phases=1 bus1=G2100AF5900_N283577_sec_5.3 kV=0.24 kVA=2.88 irradiance=1 Pmpp=2.4 %cutin=0.1 %cutout=0.1
New PVSystem.PV_17 phases=1 bus1=G2100AI4900_N283724_sec_1.2 kV=0.24 kVA=6.72 irradiance=1 Pmpp=5.6 %cutin=0.1 %cutout=0.1
New PVSystem.PV_18 phases=1 bus1=G2100BL8300_N283778_sec_7.1 kV=0.24 kVA=4.2 irradiance=1 Pmpp=3.5 %cutin=0.1 %cutout=0.1
New PVSystem.PV_19 phases=1 bus1=G2100BM9200_N283814_sec_4.1 kV=0.24 kVA=6 irradiance=1 Pmpp=5 %cutin=0.1 %cutout=0.1
New PVSystem.PV_20 phases=1 bus1=G2100CO8200_N283869_sec_2.3 kV=0.24 kVA=0.96 irradiance=1 Pmpp=0.8 %cutin=0.1 %cutout=0.1
New PVSystem.PV_21 phases=1 bus1=G2100DG1300_N283601_sec_12.3 kV=0.24 kVA=3.24 irradiance=1 Pmpp=2.7 %cutin=0.1 %cutout=0.1
New PVSystem.PV_22 phases=1 bus1=G2100DK1500_N283758_sec_7.2 kV=0.24 kVA=5.52 irradiance=1 Pmpp=4.6 %cutin=0.1 %cutout=0.1
New PVSystem.PV_23 phases=1 bus1=G2100DM3200_N283818_sec_3.3 kV=0.24 kVA=0.24 irradiance=1 Pmpp=0.2 %cutin=0.1 %cutout=0.1
New PVSystem.PV_24 phases=1 bus1=G2100DN3000_N283838_sec_12.3 kV=0.24 kVA=2.16 irradiance=1 Pmpp=1.8 %cutin=0.1 %cutout=0.1
New PVSystem.PV_25 phases=1 bus1=G2100DN4800_N283861_sec_36.3 kV=0.24 kVA=2.4 irradiance=1 Pmpp=2 %cutin=0.1 %cutout=0.1
New PVSystem.PV_26 phases=1 bus1=G2100EO2100_N292498_sec_4.3 kV=0.24 kVA=0.96 irradiance=1 Pmpp=0.8 %cutin=0.1 %cutout=0.1
New PVSystem.PV_27 phases=1 bus1=G2100EO2100_N292498_sec_10.3 kV=0.24 kVA=2.88 irradiance=1 Pmpp=2.4 %cutin=0.1 %cutout=0.1
New PVSystem.PV_28 phases=3 conn = delta bus1=G2100FE2600_N292234_sec_16.1.2.3 kV=0.48 kVA=22.56 irradiance=1 Pmpp=18.8 %cutin=0.1 %cutout=0.1
New PVSystem.PV_29 phases=1 bus1=G2100FO1600_N292502_sec_1.3 kV=0.24 kVA=2.16 irradiance=1 Pmpp=1.8 %cutin=0.1 %cutout=0.1
New PVSystem.PV_30 phases=3 conn = delta bus1=G2100GF1700_N292259_sec_2.1.2.3 kV=0.48 kVA=160.44 irradiance=1 Pmpp=133.7 %cutin=0.1 %cutout=0.1
New PVSystem.PV_31 phases=3 conn = delta bus1=G2100GM5300_N292446_sec_6.1.2.3 kV=0.48 kVA=21.84 irradiance=1 Pmpp=18.2 %cutin=0.1 %cutout=0.1
New PVSystem.PV_32 phases=3 conn = delta bus1=G2100GM6700_N292446_sec_1.1.2.3 kV=0.48 kVA=100.3967 irradiance=1 Pmpp=83.6639 %cutin=0.1 %cutout=0.1
New PVSystem.PV_33 phases=3 conn = delta bus1=G2100GO7200_N292517_sec_8.1.2.3 kV=0.48 kVA=22.56 irradiance=1 Pmpp=18.8 %cutin=0.1 %cutout=0.1
New PVSystem.PV_34 phases=1 bus1=G2100HM3200_N292420_sec_12.3 kV=0.24 kVA=1.2 irradiance=1 Pmpp=1 %cutin=0.1 %cutout=0.1
New PVSystem.PV_35 phases=3 conn = delta bus1=G2100HN2600_N292488_sec_4.1.2.3 kV=0.48 kVA=9.84 irradiance=1 Pmpp=8.2 %cutin=0.1 %cutout=0.1
New PVSystem.PV_36 phases=1 bus1=G2100HN5600_N292453_sec_18.3 kV=0.24 kVA=3.24 irradiance=1 Pmpp=2.7 %cutin=0.1 %cutout=0.1
New PVSystem.PV_37 phases=1 bus1=G2100IL1000_N292412_sec_8.3 kV=0.24 kVA=0.84 irradiance=1 Pmpp=0.7 %cutin=0.1 %cutout=0.1
New PVSystem.PV_38 phases=1 bus1=G2100IL1000_N292412_sec_38.3 kV=0.24 kVA=4.92 irradiance=1 Pmpp=4.1 %cutin=0.1 %cutout=0.1
New PVSystem.PV_39 phases=1 bus1=G2100IM6700_N292430_sec_18.3 kV=0.24 kVA=3.12 irradiance=1 Pmpp=2.6 %cutin=0.1 %cutout=0.1
New PVSystem.PV_40 phases=1 bus1=G2100IM6700_N292430_sec_26.3 kV=0.24 kVA=1.92 irradiance=1 Pmpp=1.6 %cutin=0.1 %cutout=0.1
New PVSystem.PV_41 phases=1 bus1=G2100ON7300_N300541_sec_2.1 kV=0.24 kVA=3.6 irradiance=1 Pmpp=3 %cutin=0.1 %cutout=0.1
New PVSystem.PV_42 phases=1 bus1=G2100PA2100_N300606_sec_6.1 kV=0.24 kVA=4.08 irradiance=1 Pmpp=3.4 %cutin=0.1 %cutout=0.1
New PVSystem.PV_43 phases=1 bus1=G2100RN0300_N300550_sec_5.3 kV=0.24 kVA=2.88 irradiance=1 Pmpp=2.4 %cutin=0.1 %cutout=0.1
New PVSystem.PV_44 phases=1 bus1=G2100SM8900_N312424_sec_4.2 kV=0.24 kVA=4.08 irradiance=1 Pmpp=3.4 %cutin=0.1 %cutout=0.1
New PVSystem.PV_45 phases=1 bus1=G2101AB4600_N283913_sec_2.3 kV=0.24 kVA=3.36 irradiance=1 Pmpp=2.8 %cutin=0.1 %cutout=0.1
New PVSystem.PV_46 phases=1 bus1=G2101AC2700_N284001_sec_3.3 kV=0.24 kVA=5.88 irradiance=1 Pmpp=4.9 %cutin=0.1 %cutout=0.1
New PVSystem.PV_47 phases=1 bus1=G2101AI2000_N284180_sec_3.3 kV=0.24 kVA=7.56 irradiance=1 Pmpp=6.3 %cutin=0.1 %cutout=0.1
New PVSystem.PV_48 phases=1 bus1=G2101BB3500_N283890_sec_7.1 kV=0.24 kVA=4.2 irradiance=1 Pmpp=3.5 %cutin=0.1 %cutout=0.1
New PVSystem.PV_49 phases=1 bus1=G2101BC7200_N283931_sec_3.1 kV=0.24 kVA=7.32 irradiance=1 Pmpp=6.1 %cutin=0.1 %cutout=0.1
New PVSystem.PV_50 phases=1 bus1=G2101BC8800_N283993_sec_3.2 kV=0.24 kVA=11.4 irradiance=1 Pmpp=9.5 %cutin=0.1 %cutout=0.1
New PVSystem.PV_51 phases=1 bus1=G2101BL8500_N284244_sec_1.1 kV=0.24 kVA=10.9381 irradiance=1 Pmpp=9.1151 %cutin=0.1 %cutout=0.1
New PVSystem.PV_52 phases=1 bus1=G2101BN4800_N284308_sec_2.1 kV=0.24 kVA=4.44 irradiance=1 Pmpp=3.7 %cutin=0.1 %cutout=0.1
New PVSystem.PV_53 phases=1 bus1=G2101CB7700_N283923_sec_4.1 kV=0.24 kVA=5.6981 irradiance=1 Pmpp=4.7484 %cutin=0.1 %cutout=0.1
New PVSystem.PV_54 phases=1 bus1=G2101DD1900_N284035_sec_3.1 kV=0.24 kVA=0.6 irradiance=1 Pmpp=0.5 %cutin=0.1 %cutout=0.1
New PVSystem.PV_55 phases=1 bus1=G2101EB5200_N292564_sec_4.1 kV=0.24 kVA=5.88 irradiance=1 Pmpp=4.9 %cutin=0.1 %cutout=0.1
New PVSystem.PV_56 phases=1 bus1=G2101EK5100_N292797_sec_1.2 kV=0.24 kVA=5.88 irradiance=1 Pmpp=4.9 %cutin=0.1 %cutout=0.1
New PVSystem.PV_57 phases=1 bus1=G2101EM5500_N292834_sec_1.2 kV=0.24 kVA=14.4 irradiance=1 Pmpp=12 %cutin=0.1 %cutout=0.1
New PVSystem.PV_58 phases=1 bus1=G2101FC8400_N292612_sec_4.2 kV=0.24 kVA=4.56 irradiance=1 Pmpp=3.8 %cutin=0.1 %cutout=0.1
New PVSystem.PV_59 phases=1 bus1=G2101FJ5700_N292783_sec_6.2 kV=0.24 kVA=10.3092 irradiance=1 Pmpp=8.591 %cutin=0.1 %cutout=0.1
New PVSystem.PV_60 phases=3 conn = delta bus1=G2101GA6800_N292554_sec_1.1.2.3 kV=0.48 kVA=20.52 irradiance=1 Pmpp=17.1 %cutin=0.1 %cutout=0.1
New PVSystem.PV_61 phases=1 bus1=G2101GB6700_N292603_sec_2.1 kV=0.24 kVA=3.72 irradiance=1 Pmpp=3.1 %cutin=0.1 %cutout=0.1
New PVSystem.PV_62 phases=1 bus1=G2101GB6700_N292603_sec_7.1 kV=0.24 kVA=6.96 irradiance=1 Pmpp=5.8 %cutin=0.1 %cutout=0.1
New PVSystem.PV_63 phases=1 bus1=G2101GD1300_N292637_sec_21.1 kV=0.24 kVA=3.24 irradiance=1 Pmpp=2.7 %cutin=0.1 %cutout=0.1
New PVSystem.PV_64 phases=1 bus1=G2101HB3800_N292598_sec_12.1 kV=0.24 kVA=4.08 irradiance=1 Pmpp=3.4 %cutin=0.1 %cutout=0.1
New PVSystem.PV_65 phases=1 bus1=G2101HD2500_N292652_sec_7.1 kV=0.24 kVA=3.24 irradiance=1 Pmpp=2.7 %cutin=0.1 %cutout=0.1
New PVSystem.PV_66 phases=3 conn = delta bus1=G2101IA3300_N292540_sec_1.1.2.3 kV=0.48 kVA=77.76 irradiance=1 Pmpp=64.8 %cutin=0.1 %cutout=0.1
New PVSystem.PV_67 phases=1 bus1=G2101IJ8600_N292802_sec_1.3 kV=0.24 kVA=3.96 irradiance=1 Pmpp=3.3 %cutin=0.1 %cutout=0.1
New PVSystem.PV_68 phases=3 conn = delta bus1=G2101JA6700_N1321243_sec_4.1.2.3 kV=0.48 kVA=12 irradiance=1 Pmpp=10 %cutin=0.1 %cutout=0.1
New PVSystem.PV_69 phases=1 bus1=G2101JA8400_N300634_sec_3.1 kV=0.24 kVA=12 irradiance=1 Pmpp=10 %cutin=0.1 %cutout=0.1
New PVSystem.PV_70 phases=1 bus1=G2101JF1200_N292702_sec_5.1 kV=0.24 kVA=3.8498 irradiance=1 Pmpp=3.2082 %cutin=0.1 %cutout=0.1
New PVSystem.PV_71 phases=1 bus1=G2101JF8800_N300850_sec_1.1 kV=0.24 kVA=4.56 irradiance=1 Pmpp=3.8 %cutin=0.1 %cutout=0.1
New PVSystem.PV_72 phases=1 bus1=G2101KA0900_N300672_sec_14.1 kV=0.24 kVA=2.4 irradiance=1 Pmpp=2 %cutin=0.1 %cutout=0.1
New PVSystem.PV_73 phases=1 bus1=G2101KA2300_N300631_sec_3.1 kV=0.24 kVA=1.2 irradiance=1 Pmpp=1 %cutin=0.1 %cutout=0.1
New PVSystem.PV_74 phases=1 bus1=G2101KA6200_N300623_sec_2.1 kV=0.24 kVA=2.88 irradiance=1 Pmpp=2.4 %cutin=0.1 %cutout=0.1
New PVSystem.PV_75 phases=1 bus1=G2101KA6200_N300623_sec_15.1 kV=0.24 kVA=2.64 irradiance=1 Pmpp=2.2 %cutin=0.1 %cutout=0.1
New PVSystem.PV_76 phases=1 bus1=G2101SB1800_N312602_sec_4.1 kV=0.24 kVA=3.6 irradiance=1 Pmpp=3 %cutin=0.1 %cutout=0.1
New PVSystem.PV_77 phases=1 bus1=G2102DD3500_N284350_sec_3.1 kV=0.24 kVA=6.72 irradiance=1 Pmpp=5.6 %cutin=0.1 %cutout=0.1
New PVSystem.PV_78 phases=1 bus1=G2102EG8500_N292979_sec_1.1 kV=0.24 kVA=7.5558 irradiance=1 Pmpp=6.2965 %cutin=0.1 %cutout=0.1
New PVSystem.PV_79 phases=1 bus1=G2000SN2500_N274191_sec_3.3 kV=0.24 kVA=7.08 irradiance=1 Pmpp=5.9 %cutin=0.1 %cutout=0.1
New PVSystem.PV_80 phases=1 bus1=G2000UJ3600_N283731_sec_6.2 kV=0.24 kVA=8.88 irradiance=1 Pmpp=7.4 %cutin=0.1 %cutout=0.1
New PVSystem.PV_81 phases=1 bus1=G2000WK0800_N283765_sec_1.2 kV=0.24 kVA=9.9031 irradiance=1 Pmpp=8.2526 %cutin=0.1 %cutout=0.1
New PVSystem.PV_82 phases=1 bus1=G2000WM6400_N283824_sec_2.3 kV=0.24 kVA=5.28 irradiance=1 Pmpp=4.4 %cutin=0.1 %cutout=0.1
New PVSystem.PV_83 phases=1 bus1=G2000XG5800_N283612_sec_1.3 kV=0.24 kVA=2.64 irradiance=1 Pmpp=2.2 %cutin=0.1 %cutout=0.1
New PVSystem.PV_84 phases=1 bus1=G2001QN7500_N274552_sec_3.2 kV=0.24 kVA=11.9292 irradiance=1 Pmpp=9.941 %cutin=0.1 %cutout=0.1
New PVSystem.PV_85 phases=1 bus1=G2001RH4100_N274394_sec_4.2 kV=0.24 kVA=4.7025 irradiance=1 Pmpp=3.9187 %cutin=0.1 %cutout=0.1
New PVSystem.PV_86 phases=1 bus1=G2001SI2800_N274447_sec_4.1 kV=0.24 kVA=6.12 irradiance=1 Pmpp=5.1 %cutin=0.1 %cutout=0.1
New PVSystem.PV_87 phases=1 bus1=G2001SI5500_N274436_sec_3.1 kV=0.24 kVA=5.4 irradiance=1 Pmpp=4.5 %cutin=0.1 %cutout=0.1
New PVSystem.PV_88 phases=1 bus1=G2001TC6700_N274291_sec_4.3 kV=0.24 kVA=3.72 irradiance=1 Pmpp=3.1 %cutin=0.1 %cutout=0.1
New PVSystem.PV_89 phases=1 bus1=G2001TD3700_N274305_sec_4.3 kV=0.24 kVA=6 irradiance=1 Pmpp=5 %cutin=0.1 %cutout=0.1
New PVSystem.PV_90 phases=1 bus1=G2001TF3200_N284090_sec_3.3 kV=0.24 kVA=3.24 irradiance=1 Pmpp=2.7 %cutin=0.1 %cutout=0.1
New PVSystem.PV_91 phases=1 bus1=G2001UE1100_N284038_sec_2.3 kV=0.24 kVA=5.64 irradiance=1 Pmpp=4.7 %cutin=0.1 %cutout=0.1
New PVSystem.PV_92 phases=1 bus1=G2001WC7300_N283986_sec_5.3 kV=0.24 kVA=5.4 irradiance=1 Pmpp=4.5 %cutin=0.1 %cutout=0.1
New PVSystem.PV_93 phases=1 bus1=G2001WE0200_N284057_sec_8.3 kV=0.24 kVA=2.88 irradiance=1 Pmpp=2.4 %cutin=0.1 %cutout=0.1
New PVSystem.PV_94 phases=1 bus1=G2001XH0700_N284168_sec_4.3 kV=0.24 kVA=5.04 irradiance=1 Pmpp=4.2 %cutin=0.1 %cutout=0.1
New PVSystem.PV_95 phases=1 bus1=G2001XI4700_N284192_sec_3.3 kV=0.24 kVA=3.24 irradiance=1 Pmpp=2.7 %cutin=0.1 %cutout=0.1
New PVSystem.PV_96 phases=1 bus1=G2001YA0800_N283921_sec_1.3 kV=0.24 kVA=4.2 irradiance=1 Pmpp=3.5 %cutin=0.1 %cutout=0.1
New PVSystem.PV_97 phases=1 bus1=G2100AH8200_N283618_sec_8.3 kV=0.24 kVA=3.12 irradiance=1 Pmpp=2.6 %cutin=0.1 %cutout=0.1
New PVSystem.PV_98 phases=1 bus1=G2100BH6100_N283623_sec_4.3 kV=0.24 kVA=4.08 irradiance=1 Pmpp=3.4 %cutin=0.1 %cutout=0.1
New PVSystem.PV_99 phases=1 bus1=G2100BL1200_N283774_sec_1.1 kV=0.24 kVA=7.08 irradiance=1 Pmpp=5.9 %cutin=0.1 %cutout=0.1
New PVSystem.PV_100 phases=1 bus1=G2100CI4600_N283694_sec_4.2 kV=0.24 kVA=13.32 irradiance=1 Pmpp=11.1 %cutin=0.1 %cutout=0.1
New PVSystem.PV_101 phases=3 conn = delta bus1=G2100CI6400_N283690_sec_1.1.2.3 kV=0.48 kVA=0.48 irradiance=1 Pmpp=0.4 %cutin=0.1 %cutout=0.1
New PVSystem.PV_102 phases=1 bus1=G2100CN4000_N283847_sec_1.3 kV=0.24 kVA=3.72 irradiance=1 Pmpp=3.1 %cutin=0.1 %cutout=0.1
New PVSystem.PV_103 phases=1 bus1=G2100DJ7200_N292334_sec_5.2 kV=0.24 kVA=4.4029 irradiance=1 Pmpp=3.6691 %cutin=0.1 %cutout=0.1
New PVSystem.PV_104 phases=1 bus1=G2100DM2900_N283831_sec_2.3 kV=0.24 kVA=2.28 irradiance=1 Pmpp=1.9 %cutin=0.1 %cutout=0.1
New PVSystem.PV_105 phases=1 bus1=G2100DN4800_N283861_sec_35.3 kV=0.24 kVA=2.04 irradiance=1 Pmpp=1.7 %cutin=0.1 %cutout=0.1
New PVSystem.PV_106 phases=1 bus1=G2100DO7000_N283865_sec_1.3 kV=0.24 kVA=0.96 irradiance=1 Pmpp=0.8 %cutin=0.1 %cutout=0.1
New PVSystem.PV_107 phases=1 bus1=G2100DO7000_N283865_sec_7.3 kV=0.24 kVA=1.8 irradiance=1 Pmpp=1.5 %cutin=0.1 %cutout=0.1
New PVSystem.PV_108 phases=1 bus1=G2100EN2200_N292457_sec_25.3 kV=0.24 kVA=3.12 irradiance=1 Pmpp=2.6 %cutin=0.1 %cutout=0.1
New PVSystem.PV_109 phases=1 bus1=G2100EO1300_N292510_sec_9.3 kV=0.24 kVA=2.16 irradiance=1 Pmpp=1.8 %cutin=0.1 %cutout=0.1
New PVSystem.PV_110 phases=3 conn = delta bus1=G2100FG0000_N292260_sec_2.1.2.3 kV=0.48 kVA=12 irradiance=1 Pmpp=10 %cutin=0.1 %cutout=0.1
New PVSystem.PV_111 phases=1 bus1=G2100FJ2800_N292373_sec_3.2 kV=0.24 kVA=5.4 irradiance=1 Pmpp=4.5 %cutin=0.1 %cutout=0.1
New PVSystem.PV_112 phases=1 bus1=G2100FK9800_N292385_sec_1.1 kV=0.24 kVA=21.12 irradiance=1 Pmpp=17.6 %cutin=0.1 %cutout=0.1
New PVSystem.PV_113 phases=1 bus1=G2100FL3500_N292410_sec_3.2 kV=0.24 kVA=11.04 irradiance=1 Pmpp=9.2 %cutin=0.1 %cutout=0.1
New PVSystem.PV_114 phases=1 bus1=G2100FL3500_N292410_sec_7.2 kV=0.24 kVA=0.96 irradiance=1 Pmpp=0.8 %cutin=0.1 %cutout=0.1
New PVSystem.PV_115 phases=3 conn = delta bus1=G2100FO5600_N292520_sec_2.1.2.3 kV=0.48 kVA=7.92 irradiance=1 Pmpp=6.6 %cutin=0.1 %cutout=0.1
New PVSystem.PV_116 phases=3 conn = delta bus1=G2100FO5600_N292520_sec_5.1.2.3 kV=0.48 kVA=31.56 irradiance=1 Pmpp=26.3 %cutin=0.1 %cutout=0.1
New PVSystem.PV_117 phases=3 conn = delta bus1=G2100GI5400_N292325_sec_3.1.2.3 kV=0.48 kVA=13.56 irradiance=1 Pmpp=11.3 %cutin=0.1 %cutout=0.1
New PVSystem.PV_118 phases=1 bus1=G2100GN7300_N292464_sec_3.1 kV=0.24 kVA=1.68 irradiance=1 Pmpp=1.4 %cutin=0.1 %cutout=0.1
New PVSystem.PV_119 phases=3 conn = delta bus1=G2100GP2100_N292531_sec_2.1.2.3 kV=0.48 kVA=1.08 irradiance=1 Pmpp=0.9 %cutin=0.1 %cutout=0.1
New PVSystem.PV_120 phases=1 bus1=G2100HM3200_N292420_sec_7.3 kV=0.24 kVA=0.36 irradiance=1 Pmpp=0.3 %cutin=0.1 %cutout=0.1
New PVSystem.PV_121 phases=1 bus1=G2100HN5600_N292453_sec_9.3 kV=0.24 kVA=1.56 irradiance=1 Pmpp=1.3 %cutin=0.1 %cutout=0.1
New PVSystem.PV_122 phases=1 bus1=G2100HN5600_N292453_sec_12.3 kV=0.24 kVA=2.76 irradiance=1 Pmpp=2.3 %cutin=0.1 %cutout=0.1
New PVSystem.PV_123 phases=1 bus1=G2100HN5600_N292453_sec_40.3 kV=0.24 kVA=1.08 irradiance=1 Pmpp=0.9 %cutin=0.1 %cutout=0.1
New PVSystem.PV_124 phases=1 bus1=G2100HN5600_N292453_sec_47.3 kV=0.24 kVA=1.92 irradiance=1 Pmpp=1.6 %cutin=0.1 %cutout=0.1
New PVSystem.PV_125 phases=3 conn = delta bus1=G2100KO2700_N300582_sec_1.1.2.3 kV=0.48 kVA=47.4 irradiance=1 Pmpp=39.5 %cutin=0.1 %cutout=0.1
New PVSystem.PV_126 phases=1 bus1=G2100OO7600_N300586_sec_1.1 kV=0.24 kVA=4.44 irradiance=1 Pmpp=3.7 %cutin=0.1 %cutout=0.1
New PVSystem.PV_127 phases=1 bus1=G2100RN1800_N300557_sec_1.3 kV=0.24 kVA=4.92 irradiance=1 Pmpp=4.1 %cutin=0.1 %cutout=0.1
New PVSystem.PV_128 phases=1 bus1=G2100RN1800_N300557_sec_2.3 kV=0.24 kVA=2.76 irradiance=1 Pmpp=2.3 %cutin=0.1 %cutout=0.1
New PVSystem.PV_129 phases=1 bus1=G2100RO0400_N300576_sec_8.3 kV=0.24 kVA=4.3003 irradiance=1 Pmpp=3.5836 %cutin=0.1 %cutout=0.1
New PVSystem.PV_130 phases=1 bus1=G2100SO3700_N312462_sec_7.3 kV=0.24 kVA=2.76 irradiance=1 Pmpp=2.3 %cutin=0.1 %cutout=0.1
New PVSystem.PV_131 phases=1 bus1=G2101AC9800_N283938_sec_5.3 kV=0.24 kVA=3.24 irradiance=1 Pmpp=2.7 %cutin=0.1 %cutout=0.1
New PVSystem.PV_132 phases=1 bus1=G2101BA6700_N283900_sec_5.1 kV=0.24 kVA=5.16 irradiance=1 Pmpp=4.3 %cutin=0.1 %cutout=0.1
New PVSystem.PV_133 phases=1 bus1=G2101BC7200_N283931_sec_11.1 kV=0.24 kVA=5.52 irradiance=1 Pmpp=4.6 %cutin=0.1 %cutout=0.1
New PVSystem.PV_134 phases=1 bus1=G2101BG9000_N284109_sec_1.3 kV=0.24 kVA=6.48 irradiance=1 Pmpp=5.4 %cutin=0.1 %cutout=0.1
New PVSystem.PV_135 phases=1 bus1=G2101DC0100_N283946_sec_8.1 kV=0.24 kVA=6.96 irradiance=1 Pmpp=5.8 %cutin=0.1 %cutout=0.1
New PVSystem.PV_136 phases=1 bus1=G2101DF4700_N284102_sec_3.2 kV=0.24 kVA=3.72 irradiance=1 Pmpp=3.1 %cutin=0.1 %cutout=0.1
New PVSystem.PV_137 phases=1 bus1=G2101ED9700_N292597_sec_6.1 kV=0.24 kVA=7.1454 irradiance=1 Pmpp=5.9545 %cutin=0.1 %cutout=0.1
New PVSystem.PV_138 phases=1 bus1=G2101FC9500_N292618_sec_6.1 kV=0.24 kVA=2.64 irradiance=1 Pmpp=2.2 %cutin=0.1 %cutout=0.1
New PVSystem.PV_139 phases=3 conn = delta bus1=G2101GA5600_N292545_sec_1.1.2.3 kV=0.48 kVA=217.8295 irradiance=1 Pmpp=181.5246 %cutin=0.1 %cutout=0.1
New PVSystem.PV_140 phases=1 bus1=G2101GC3400_N292625_sec_1.1 kV=0.24 kVA=1.32 irradiance=1 Pmpp=1.1 %cutin=0.1 %cutout=0.1
New PVSystem.PV_141 phases=1 bus1=G2101GC9700_N292633_sec_13.1 kV=0.24 kVA=3.12 irradiance=1 Pmpp=2.6 %cutin=0.1 %cutout=0.1
New PVSystem.PV_142 phases=1 bus1=G2101GC9700_N292633_sec_21.1 kV=0.24 kVA=3 irradiance=1 Pmpp=2.5 %cutin=0.1 %cutout=0.1
New PVSystem.PV_143 phases=3 conn = delta bus1=G2101HA1300_N292535_sec_1.1.2.3 kV=0.48 kVA=0.84 irradiance=1 Pmpp=0.7 %cutin=0.1 %cutout=0.1
New PVSystem.PV_144 phases=1 bus1=G2101HB6800_N292600_sec_5.1 kV=0.24 kVA=5.4 irradiance=1 Pmpp=4.5 %cutin=0.1 %cutout=0.1
New PVSystem.PV_145 phases=1 bus1=G2101HB6800_N292600_sec_6.1 kV=0.24 kVA=3.96 irradiance=1 Pmpp=3.3 %cutin=0.1 %cutout=0.1
New PVSystem.PV_146 phases=1 bus1=G2101HD3500_N292652_sec_7.1 kV=0.24 kVA=2.28 irradiance=1 Pmpp=1.9 %cutin=0.1 %cutout=0.1
New PVSystem.PV_147 phases=1 bus1=G2101HL5500_N292841_sec_2.3 kV=0.24 kVA=5.64 irradiance=1 Pmpp=4.7 %cutin=0.1 %cutout=0.1
New PVSystem.PV_148 phases=1 bus1=G2101HN5200_N292851_sec_2.2 kV=0.24 kVA=14.682 irradiance=1 Pmpp=12.235 %cutin=0.1 %cutout=0.1
New PVSystem.PV_149 phases=1 bus1=G2101JG1900_N292717_sec_5.1 kV=0.24 kVA=4.44 irradiance=1 Pmpp=3.7 %cutin=0.1 %cutout=0.1
New PVSystem.PV_150 phases=1 bus1=G2101JN9300_N301049_sec_2.3 kV=0.24 kVA=11.64 irradiance=1 Pmpp=9.7 %cutin=0.1 %cutout=0.1
New PVSystem.PV_151 phases=1 bus1=G2101KA7500_N300643_sec_1.1 kV=0.24 kVA=1.32 irradiance=1 Pmpp=1.1 %cutin=0.1 %cutout=0.1
New PVSystem.PV_152 phases=1 bus1=G2101RA8200_N312510_sec_9.3 kV=0.24 kVA=3.12 irradiance=1 Pmpp=2.6 %cutin=0.1 %cutout=0.1
New PVSystem.PV_153 phases=1 bus1=G2101SB2000_N312551_sec_2.1 kV=0.24 kVA=7.44 irradiance=1 Pmpp=6.2 %cutin=0.1 %cutout=0.1
New PVSystem.PV_154 phases=1 bus1=G2101TB0900_N312595_sec_2.1 kV=0.24 kVA=4.68 irradiance=1 Pmpp=3.9 %cutin=0.1 %cutout=0.1
New PVSystem.PV_155 phases=1 bus1=G2101UB2800_N312558_sec_6.2 kV=0.24 kVA=6.24 irradiance=1 Pmpp=5.2 %cutin=0.1 %cutout=0.1
New PVSystem.PV_156 phases=1 bus1=G2000SK5500_N274137_sec_7.2 kV=0.24 kVA=8.4 irradiance=1 Pmpp=7 %cutin=0.1 %cutout=0.1
New PVSystem.PV_157 phases=1 bus1=G2000UI3100_N283702_sec_2.3 kV=0.24 kVA=2.4 irradiance=1 Pmpp=2 %cutin=0.1 %cutout=0.1
New PVSystem.PV_158 phases=1 bus1=G2000UO1100_N283873_sec_1.3 kV=0.24 kVA=3.24 irradiance=1 Pmpp=2.7 %cutin=0.1 %cutout=0.1
New PVSystem.PV_159 phases=1 bus1=G2000VM1500_N283827_sec_2.2 kV=0.24 kVA=5.64 irradiance=1 Pmpp=4.7 %cutin=0.1 %cutout=0.1
New PVSystem.PV_160 phases=1 bus1=G2000WL3500_N283799_sec_1.3 kV=0.24 kVA=3.12 irradiance=1 Pmpp=2.6 %cutin=0.1 %cutout=0.1
New PVSystem.PV_161 phases=1 bus1=G2000XH4800_N283608_sec_2.2 kV=0.24 kVA=2.16 irradiance=1 Pmpp=1.8 %cutin=0.1 %cutout=0.1
New PVSystem.PV_162 phases=1 bus1=G2001QO2100_N274563_sec_4.2 kV=0.24 kVA=6.72 irradiance=1 Pmpp=5.6 %cutin=0.1 %cutout=0.1
New PVSystem.PV_163 phases=1 bus1=G2001RI6300_N1347089_sec_7.1 kV=0.24 kVA=5.88 irradiance=1 Pmpp=4.9 %cutin=0.1 %cutout=0.1
New PVSystem.PV_164 phases=1 bus1=G2001RJ3400_N274458_sec_3.2 kV=0.24 kVA=10.44 irradiance=1 Pmpp=8.7 %cutin=0.1 %cutout=0.1
New PVSystem.PV_165 phases=1 bus1=G2001RL0800_N274521_sec_3.2 kV=0.24 kVA=0.84 irradiance=1 Pmpp=0.7 %cutin=0.1 %cutout=0.1
New PVSystem.PV_166 phases=1 bus1=G2001SH1900_N1347089_sec_4.1 kV=0.24 kVA=4.56 irradiance=1 Pmpp=3.8 %cutin=0.1 %cutout=0.1
New PVSystem.PV_167 phases=1 bus1=G2001SH1900_N1347089_sec_6.1 kV=0.24 kVA=7.2 irradiance=1 Pmpp=6 %cutin=0.1 %cutout=0.1
New PVSystem.PV_168 phases=1 bus1=G2001TD3700_N274305_sec_5.3 kV=0.24 kVA=5.52 irradiance=1 Pmpp=4.6 %cutin=0.1 %cutout=0.1
New PVSystem.PV_169 phases=1 bus1=G2001UB4400_N283904_sec_6.3 kV=0.24 kVA=3.12 irradiance=1 Pmpp=2.6 %cutin=0.1 %cutout=0.1
New PVSystem.PV_170 phases=1 bus1=G2001UD9000_N283927_sec_2.3 kV=0.24 kVA=3.36 irradiance=1 Pmpp=2.8 %cutin=0.1 %cutout=0.1
New PVSystem.PV_171 phases=1 bus1=G2001VD6400_N283955_sec_4.3 kV=0.24 kVA=3.96 irradiance=1 Pmpp=3.3 %cutin=0.1 %cutout=0.1
New PVSystem.PV_172 phases=1 bus1=G2001WB9000_N283924_sec_2.3 kV=0.24 kVA=5.4 irradiance=1 Pmpp=4.5 %cutin=0.1 %cutout=0.1
New PVSystem.PV_173 phases=1 bus1=G2001WC3900_N284043_sec_2.3 kV=0.24 kVA=3 irradiance=1 Pmpp=2.5 %cutin=0.1 %cutout=0.1
New PVSystem.PV_174 phases=1 bus1=G2001WE0200_N284057_sec_3.3 kV=0.24 kVA=4.9055 irradiance=1 Pmpp=4.0879 %cutin=0.1 %cutout=0.1
New PVSystem.PV_175 phases=1 bus1=G2001WG8300_N284116_sec_2.3 kV=0.24 kVA=5.52 irradiance=1 Pmpp=4.6 %cutin=0.1 %cutout=0.1
New PVSystem.PV_176 phases=1 bus1=G2100AK1200_N283742_sec_2.2 kV=0.24 kVA=5.76 irradiance=1 Pmpp=4.8 %cutin=0.1 %cutout=0.1
New PVSystem.PV_177 phases=1 bus1=G2100BH3900_N283665_sec_2.3 kV=0.24 kVA=3.12 irradiance=1 Pmpp=2.6 %cutin=0.1 %cutout=0.1
New PVSystem.PV_178 phases=1 bus1=G2100BJ0700_N283696_sec_10.2 kV=0.24 kVA=2.1739 irradiance=1 Pmpp=1.8116 %cutin=0.1 %cutout=0.1
New PVSystem.PV_179 phases=1 bus1=G2100BL8300_N283778_sec_4.1 kV=0.24 kVA=5.76 irradiance=1 Pmpp=4.8 %cutin=0.1 %cutout=0.1
New PVSystem.PV_180 phases=1 bus1=G2100BM3700_N283826_sec_1.1 kV=0.24 kVA=3.12 irradiance=1 Pmpp=2.6 %cutin=0.1 %cutout=0.1
New PVSystem.PV_181 phases=1 bus1=G2100BO1200_N283866_sec_3.3 kV=0.24 kVA=6.6 irradiance=1 Pmpp=5.5 %cutin=0.1 %cutout=0.1
New PVSystem.PV_182 phases=1 bus1=G2100BP7000_N283874_sec_4.3 kV=0.24 kVA=3.12 irradiance=1 Pmpp=2.6 %cutin=0.1 %cutout=0.1
New PVSystem.PV_183 phases=1 bus1=G2100CJ3400_N283737_sec_3.2 kV=0.24 kVA=7.7497 irradiance=1 Pmpp=6.458 %cutin=0.1 %cutout=0.1
New PVSystem.PV_184 phases=1 bus1=G2100DG3700_N283614_sec_20.3 kV=0.24 kVA=3.36 irradiance=1 Pmpp=2.8 %cutin=0.1 %cutout=0.1
New PVSystem.PV_185 phases=1 bus1=G2100DG6300_N283589_sec_9.3 kV=0.24 kVA=3.96 irradiance=1 Pmpp=3.3 %cutin=0.1 %cutout=0.1
New PVSystem.PV_186 phases=1 bus1=G2100DH9500_N292300_sec_3.3 kV=0.24 kVA=3.96 irradiance=1 Pmpp=3.3 %cutin=0.1 %cutout=0.1
New PVSystem.PV_187 phases=1 bus1=G2100DN3000_N283838_sec_4.3 kV=0.24 kVA=1.68 irradiance=1 Pmpp=1.4 %cutin=0.1 %cutout=0.1
New PVSystem.PV_188 phases=1 bus1=G2100DN4800_N283861_sec_52.3 kV=0.24 kVA=2.16 irradiance=1 Pmpp=1.8 %cutin=0.1 %cutout=0.1
New PVSystem.PV_189 phases=1 bus1=G2100DN4800_N283861_sec_53.3 kV=0.24 kVA=3 irradiance=1 Pmpp=2.5 %cutin=0.1 %cutout=0.1
New PVSystem.PV_190 phases=1 bus1=G2100EK1100_N292334_sec_6.2 kV=0.24 kVA=2.76 irradiance=1 Pmpp=2.3 %cutin=0.1 %cutout=0.1
New PVSystem.PV_191 phases=1 bus1=G2100EN2200_N292457_sec_24.3 kV=0.24 kVA=3.12 irradiance=1 Pmpp=2.6 %cutin=0.1 %cutout=0.1
New PVSystem.PV_192 phases=1 bus1=G2100EO1300_N292510_sec_3.3 kV=0.24 kVA=2.04 irradiance=1 Pmpp=1.7 %cutin=0.1 %cutout=0.1
New PVSystem.PV_193 phases=1 bus1=G2100EO1300_N292510_sec_5.3 kV=0.24 kVA=1.56 irradiance=1 Pmpp=1.3 %cutin=0.1 %cutout=0.1
New PVSystem.PV_194 phases=1 bus1=G2100FJ2800_N292373_sec_2.2 kV=0.24 kVA=8.64 irradiance=1 Pmpp=7.2 %cutin=0.1 %cutout=0.1
New PVSystem.PV_195 phases=1 bus1=G2100FK5800_N292373_sec_6.2 kV=0.24 kVA=8.28 irradiance=1 Pmpp=6.9 %cutin=0.1 %cutout=0.1
New PVSystem.PV_196 phases=1 bus1=G2100FL0800_N292417_sec_1.3 kV=0.24 kVA=3 irradiance=1 Pmpp=2.5 %cutin=0.1 %cutout=0.1
New PVSystem.PV_197 phases=1 bus1=G2100FO1600_N292502_sec_15.3 kV=0.24 kVA=2.88 irradiance=1 Pmpp=2.4 %cutin=0.1 %cutout=0.1
New PVSystem.PV_198 phases=1 bus1=G2100GN2400_N292466_sec_1.1 kV=0.24 kVA=3.72 irradiance=1 Pmpp=3.1 %cutin=0.1 %cutout=0.1
New PVSystem.PV_199 phases=1 bus1=G2100GN4300_N292461_sec_3.1 kV=0.24 kVA=1.56 irradiance=1 Pmpp=1.3 %cutin=0.1 %cutout=0.1
New PVSystem.PV_200 phases=1 bus1=G2100HM9900_N292433_sec_1.3 kV=0.24 kVA=1.92 irradiance=1 Pmpp=1.6 %cutin=0.1 %cutout=0.1
...
